* BPV10NF SPICE Macro-model        
* Description: Photodiode
* Generic Desc: Silicon, PIN type
* Developed by: P Rako
* Revision History: 
* 1.0 (8/2012) - PR - initial release
* 1.1 (8/2012) - PR - correct data and part number
* 1.2 (9/2012) - PR - put new line before +
* Copyright 2012 by Analog Devices, Inc.
*
* Refer to http://www.analog.com/Analog_Root/static/techSupport/designTools/spiceModels/license/spice_general.html 
* for License Statement. Use of this model indicates your acceptance
* of the terms and provisions in the License Statement.
* 
*
* BEGIN Notes:
* 
* Not Modeled:
* Temperature effects
* Noise
* 
* Parameters modeled include:  
* Junction capacitance over reverse bias
* Rise/fall time
* Accepts external parameter for sensitivity (Sensy)
* Accepts external parameter for light spectrum (Spec)
* END Notes
*
* Node Assignments
*                         anode
*                         |   cathode
*                         |   |   light input as a voltage
*                         |   |   |
*                         |   |   |
*                         |   |   |
*                         |   |   |
.SUBCKT BPV10NF           A   C   P  PARAMS: Spec=1.0 Sensy=0.55
* 
*
* BPV10NF from Vishay
* A = Anode
* C = Cathode
* P = (light)Power as a voltage input
Rdummy P 0 1G
Rswt P LP 1.785k
Cswt LP 0 1p
DPD A C PhotoDet
GPD C A TABLE {V(LP)* Spec * Sensy} (0,0) (1,1)
.MODEL PhotoDet D IS=1n RS=0.1 N=1.986196 BV=60 IBV=0.1n
+ CJO=10p VJ=0.455536 M=0.418717 TT=500n ISR=6p NR=100
.ends
* BPV22NF SPICE Macro-model        
* Description: Photodiode
* Generic Desc: Silicon, PIN type
* Developed by: P Rako
* Revision History: 
* 1.0 (8/2012) - PR - initial release
* 1.2 (9/2012) - PR - put new line before +
* Copyright 2012 by Analog Devices, Inc.
*
* Refer to http://www.analog.com/Analog_Root/static/techSupport/designTools/spiceModels/license/spice_general.html 
* for License Statement. Use of this model indicates your acceptance
* of the terms and provisions in the License Statement.
* 
*
* BEGIN Notes:
* 
* Not Modeled:
* Temperature effects
* Noise
* 
* Parameters modeled include:  
* Junction capacitance over reverse bias
* Rise/fall time
* Accepts external parameter for sensitivity (Sensy)
* Accepts external parameter for light spectrum (Spec)
* END Notes
*
* Node Assignments
*                         anode
*                         |   cathode
*                         |   |   light input as a voltage
*                         |   |   |
*                         |   |   |
*                         |   |   |
*                         |   |   |
.SUBCKT BPV22NF           A   C   P  PARAMS: Spec=1.0 Sensy=0.6
* 
*
* BPV22NF from Vishay
* A = Anode
* C = Cathode
* P = (light)Power as a voltage input
Rdummy P 0 1G
Rswt P LP 71.43k
Cswt LP 0 1p
DPD A C PhotoDet
GPD C A TABLE {V(LP)* Spec * Sensy} (0,0) (1,1)
.MODEL PhotoDet D IS=2n RS=0.1 N=1.986196 BV=60 IBV=0.1n
+ CJO=70p VJ=0.455536 M=0.418717 TT=500n ISR=6p NR=100
.ends
* BPV23F SPICE Macro-model        
* Description: Photodiode
* Generic Desc: Silicon, PIN type
* Developed by: P Rako
* Revision History: 
* 1.0 (8/2012) - PR - initial release
* 1.2 (9/2012) - PR - put new line before +
* Copyright 2012 by Analog Devices, Inc.
*
* Refer to http://www.analog.com/Analog_Root/static/techSupport/designTools/spiceModels/license/spice_general.html 
* for License Statement. Use of this model indicates your acceptance
* of the terms and provisions in the License Statement.
* 
*
* BEGIN Notes:
* 
* Not Modeled:
* Temperature effects
* Noise
* 
* Parameters modeled include:  
* Junction capacitance over reverse bias
* Rise/fall time
* Accepts external parameter for sensitivity (Sensy)
* Accepts external parameter for light spectrum (Spec)
* END Notes
*
* Node Assignments
*                         anode
*                         |   cathode
*                         |   |   light input as a voltage
*                         |   |   |
*                         |   |   |
*                         |   |   |
*                         |   |   |
.SUBCKT BPV23F            A   C   P  PARAMS: Spec=1.0 Sensy=0.6
* 
*
* BPV23F from Vishay
* A = Anode
* C = Cathode
* P = (light)Power as a voltage input
Rdummy P 0 1G
Rswt P LP 50k
Cswt LP 0 1p
DPD A C PhotoDet
GPD C A TABLE {V(LP)* Spec * Sensy} (0,0) (1,1)
.MODEL PhotoDet D IS=2n RS=0.1 N=1.986196 BV=60 IBV=0.1n
+ CJO=48p VJ=0.455536 M=0.418717 TT=500n ISR=6p NR=100
.ends
* BPV23NF SPICE Macro-model        
* Description: Photodiode
* Generic Desc: Silicon, PIN type
* Developed by: P Rako
* Revision History: 
* 1.0 (8/2012) - PR - initial release
* 1.2 (9/2012) - PR - put new line before +
* Copyright 2012 by Analog Devices, Inc.
*
* Refer to http://www.analog.com/Analog_Root/static/techSupport/designTools/spiceModels/license/spice_general.html 
* for License Statement. Use of this model indicates your acceptance
* of the terms and provisions in the License Statement.
* 
*
* BEGIN Notes:
* 
* Not Modeled:
* Temperature effects
* Noise
* 
* Parameters modeled include:  
* Junction capacitance over reverse bias
* Rise/fall time
* Accepts external parameter for sensitivity (Sensy)
* Accepts external parameter for light spectrum (Spec)
* END Notes
*
* Node Assignments
*                         anode
*                         |   cathode
*                         |   |   light input as a voltage
*                         |   |   |
*                         |   |   |
*                         |   |   |
*                         |   |   |
.SUBCKT BPV23NF           A   C   P  PARAMS: Spec=1.0 Sensy=0.6
* 
*
* BPV23NF from Vishay
* A = Anode
* C = Cathode
* P = (light)Power as a voltage input
Rdummy P 0 1G
Rswt P LP 50k
Cswt LP 0 1p
DPD A C PhotoDet
GPD C A TABLE {V(LP)* Spec * Sensy} (0,0) (1,1)
.MODEL PhotoDet D IS=2n RS=0.1 N=1.986196 BV=60 IBV=0.1n
+ CJO=48p VJ=0.455536 M=0.418717 TT=500n ISR=6p NR=100
.ends
* BPW34 SPICE Macro-model        
* Description: Photodiode
* Generic Desc: Silicon, PIN type
* Developed by: P Rako
* Revision History: 
* 1.0 (8/2012) - PR - initial release
* 1.2 (9/2012) - PR - put new line before +
* Copyright 2012 by Analog Devices, Inc.
*
* Refer to http://www.analog.com/Analog_Root/static/techSupport/designTools/spiceModels/license/spice_general.html 
* for License Statement. Use of this model indicates your acceptance
* of the terms and provisions in the License Statement.
* 
*
* BEGIN Notes:
* 
* Not Modeled:
* Temperature effects
* Noise
* 
* Parameters modeled include:  
* Junction capacitance over reverse bias
* Rise/fall time
* Accepts external parameter for sensitivity (Sensy)
* Accepts external parameter for light spectrum (Spec)
* END Notes
*
* Node Assignments
*                         anode
*                         |   cathode
*                         |   |   light input as a voltage
*                         |   |   |
*                         |   |   |
*                         |   |   |
*                         |   |   |
.SUBCKT BPW34             A   C   P  PARAMS: Spec=1.0 Sensy=0.62
* 
*
* BPW34 from OSRAM 
* A = Anode
* C = Cathode
* P = (light)Power as a voltage input
Rdummy P 0 1G
Rswt P LP 14.3k
Cswt LP 0 1p
DPD A C PhotoDet
GPD C A TABLE {V(LP)* Spec * Sensy} (0,0) (1,1)
.MODEL PhotoDet D IS=2n RS=0.1 N=1.986196 BV=60 IBV=0.1n
+ CJO=72p VJ=0.455536 M=0.418717 TT=500n ISR=6p NR=100
.ends
* BPW34FA SPICE Macro-model        
* Description: Photodiode
* Generic Desc: Silicon, PIN type
* Developed by: P Rako
* Revision History: 
* 1.0 (8/2012) - PR - initial release
* 1.2 (9/2012) - PR - put new line before +
* Copyright 2012 by Analog Devices, Inc.
*
* Refer to http://www.analog.com/Analog_Root/static/techSupport/designTools/spiceModels/license/spice_general.html 
* for License Statement. Use of this model indicates your acceptance
* of the terms and provisions in the License Statement.
* 
*
* BEGIN Notes:
* 
* Not Modeled:
* Temperature effects
* Noise
* 
* Parameters modeled include:  
* Junction capacitance over reverse bias
* Rise/fall time
* Accepts external parameter for sensitivity (Sensy)
* Accepts external parameter for light spectrum (Spec)
* END Notes
*
* Node Assignments
*                         anode
*                         |   cathode
*                         |   |   light input as a voltage
*                         |   |   |
*                         |   |   |
*                         |   |   |
*                         |   |   |
.SUBCKT BPW34FA           A   C   P  PARAMS: Spec=1.0 Sensy=0.65
* 
*
* BPW34FA from OSRAM 
* A = Anode
* C = Cathode
* P = (light)Power as a voltage input
Rdummy P 0 1G
Rswt P LP 14.3k
Cswt LP 0 1p
DPD A C PhotoDet
GPD C A TABLE {V(LP)* Spec * Sensy} (0,0) (1,1)
.MODEL PhotoDet D IS=2n RS=0.1 N=1.986196 BV=16 IBV=0.1n
+ CJO=72p VJ=0.455536 M=0.418717 TT=500n ISR=6p NR=100
.ends
* BPW34FAS SPICE Macro-model        
* Description: Photodiode
* Generic Desc: Silicon, PIN type
* Developed by: P Rako
* Revision History: 
* 1.0 (8/2012) - PR - initial release
* 1.2 (9/2012) - PR - put new line before +
* Copyright 2012 by Analog Devices, Inc.
*
* Refer to http://www.analog.com/Analog_Root/static/techSupport/designTools/spiceModels/license/spice_general.html 
* for License Statement. Use of this model indicates your acceptance
* of the terms and provisions in the License Statement.
* 
*
* BEGIN Notes:
* 
* Not Modeled:
* Temperature effects
* Noise
* 
* Parameters modeled include:  
* Junction capacitance over reverse bias
* Rise/fall time
* Accepts external parameter for sensitivity (Sensy)
* Accepts external parameter for light spectrum (Spec)
* END Notes
*
* Node Assignments
*                         anode
*                         |   cathode
*                         |   |   light input as a voltage
*                         |   |   |
*                         |   |   |
*                         |   |   |
*                         |   |   |
.SUBCKT BPW34FAS          A   C   P  PARAMS: Spec=1.0 Sensy=0.65
* 
*
* BPW34FAS from OSRAM 
* A = Anode
* C = Cathode
* P = (light)Power as a voltage input
Rdummy P 0 1G
Rswt P LP 14.3k
Cswt LP 0 1p
DPD A C PhotoDet
GPD C A TABLE {V(LP)* Spec * Sensy} (0,0) (1,1)
.MODEL PhotoDet D IS=2n RS=0.1 N=1.986196 BV=16 IBV=0.1n
+ CJO=72p VJ=0.455536 M=0.418717 TT=500n ISR=6p NR=100
.ends
* BPW34FASR SPICE Macro-model        
* Description: Photodiode
* Generic Desc: Silicon, PIN type
* Developed by: P Rako
* Revision History: 
* 1.0 (8/2012) - PR - initial release
* 1.2 (9/2012) - PR - put new line before +
* Copyright 2012 by Analog Devices, Inc.
*
* Refer to http://www.analog.com/Analog_Root/static/techSupport/designTools/spiceModels/license/spice_general.html 
* for License Statement. Use of this model indicates your acceptance
* of the terms and provisions in the License Statement.
* 
*
* BEGIN Notes:
* 
* Not Modeled:
* Temperature effects
* Noise
* 
* Parameters modeled include:  
* Junction capacitance over reverse bias
* Rise/fall time
* Accepts external parameter for sensitivity (Sensy)
* Accepts external parameter for light spectrum (Spec)
* END Notes
*
* Node Assignments
*                         anode
*                         |   cathode
*                         |   |   light input as a voltage
*                         |   |   |
*                         |   |   |
*                         |   |   |
*                         |   |   |
.SUBCKT BPW34FASR         A   C   P  PARAMS: Spec=1.0 Sensy=0.65
* 
*
* BPW34FASR from OSRAM 
* A = Anode
* C = Cathode
* P = (light)Power as a voltage input
Rdummy P 0 1G
Rswt P LP 14.3k
Cswt LP 0 1p
DPD A C PhotoDet
GPD C A TABLE {V(LP)* Spec * Sensy} (0,0) (1,1)
.MODEL PhotoDet D IS=2n RS=0.1 N=1.986196 BV=16 IBV=0.1n
+ CJO=72p VJ=0.455536 M=0.418717 TT=500n ISR=6p NR=100
.ends
* HSDL-5400 SPICE Macro-model        
* Description: Photodiode
* Generic Desc: Silicon, PIN type
* Developed by: P Rako
* Revision History: 
* 1.0 (8/2012) - PR - initial release
* 1.2 (9/2012) - PR - put new line before +
* 1.4 (12/2012) - PR - replaced - with _ in model name.
* Copyright 2012 by Analog Devices, Inc.
*
* Refer to http://www.analog.com/Analog_Root/static/techSupport/designTools/spiceModels/license/spice_general.html 
* for License Statement. Use of this model indicates your acceptance
* of the terms and provisions in the License Statement.
* 
*
* BEGIN Notes:
* 
* Not Modeled:
* Temperature effects
* Noise
* 
* Parameters modeled include:  
* Junction capacitance over reverse bias
* Rise/fall time
* Accepts external parameter for sensitivity (Sensy)
* Accepts external parameter for light spectrum (Spec)
* END Notes
*
* Node Assignments
*                         anode
*                         |   cathode
*                         |   |   light input as a voltage
*                         |   |   |
*                         |   |   |
*                         |   |   |
*                         |   |   |
.SUBCKT HSDL_5400         A   C   P  PARAMS: Spec=1.0 Sensy=0.5
* 
*
* HSDL-5400 from Lite-on 
* A = Anode
* C = Cathode
* P = (light)Power as a voltage input
Rdummy P 0 1G
Rswt P LP 5.37k
Cswt LP 0 1p
DPD A C PhotoDet
GPD C A TABLE {V(LP)* Spec * Sensy} (0,0) (1,1)
.MODEL PhotoDet D IS=1n RS=0.1 N=1.986196 BV=40 IBV=0.1n
+ CJO=5p VJ=0.455536 M=0.418717 TT=500n ISR=6p NR=100
.ends
* HSDL-5420 SPICE Macro-model        
* Description: Photodiode
* Generic Desc: Silicon, PIN type
* Developed by: P Rako
* Revision History: 
* 1.0 (8/2012) - PR - initial release
* 1.2 (9/2012) - PR - put new line before +
* 1.4 (12/2012) - PR - replaced - with _ in model name.
* Copyright 2012 by Analog Devices, Inc.
*
* Refer to http://www.analog.com/Analog_Root/static/techSupport/designTools/spiceModels/license/spice_general.html 
* for License Statement. Use of this model indicates your acceptance
* of the terms and provisions in the License Statement.
* 
*
* BEGIN Notes:
* 
* Not Modeled:
* Temperature effects
* Noise
* 
* Parameters modeled include:  
* Junction capacitance over reverse bias
* Rise/fall time
* Accepts external parameter for sensitivity (Sensy)
* Accepts external parameter for light spectrum (Spec)
* END Notes
*
* Node Assignments
*                         anode
*                         |   cathode
*                         |   |   light input as a voltage
*                         |   |   |
*                         |   |   |
*                         |   |   |
*                         |   |   |
.SUBCKT HSDL_5420         A   C   P  PARAMS: Spec=1.0 Sensy=0.5
* 
*
* HSDL-5420 from Lite-on 
* A = Anode
* C = Cathode
* P = (light)Power as a voltage input
Rdummy P 0 1G
Rswt P LP 5.37k
Cswt LP 0 1p
DPD A C PhotoDet
GPD C A TABLE {V(LP)* Spec * Sensy} (0,0) (1,1)
.MODEL PhotoDet D IS=1n RS=0.1 N=1.986196 BV=40 IBV=0.1n
+ CJO=5p VJ=0.455536 M=0.418717 TT=500n ISR=6p NR=100
.ends
* LTR-516AD SPICE Macro-model        
* Description: Photodiode
* Generic Desc: Silicon, PIN type
* Developed by: P Rako
* Revision History: 
* 1.0 (8/2012) - PR - initial release
* 1.2 (9/2012) - PR - put new line before +
* 1.4 (12/2012) - PR - replaced - with _ in model name.
* Copyright 2012 by Analog Devices, Inc.
*
* Refer to http://www.analog.com/Analog_Root/static/techSupport/designTools/spiceModels/license/spice_general.html 
* for License Statement. Use of this model indicates your acceptance
* of the terms and provisions in the License Statement.
* 
*
* BEGIN Notes:
* 
* Not Modeled:
* Temperature effects
* Noise
* 
* Parameters modeled include:  
* Junction capacitance over reverse bias
* Rise/fall time
* Accepts external parameter for sensitivity (Sensy)
* Accepts external parameter for light spectrum (Spec)
* END Notes
*
* Node Assignments
*                         anode
*                         |   cathode
*                         |   |   light input as a voltage
*                         |   |   |
*                         |   |   |
*                         |   |   |
*                         |   |   |
.SUBCKT LTR_516AD         A   C   P  PARAMS: Spec=1.0 Sensy=0.5
* 
*
* LTR-516AD from Lite-on 
* A = Anode
* C = Cathode
* P = (light)Power as a voltage input
Rdummy P 0 1G
Rswt P LP 35.7k
Cswt LP 0 1p
DPD A C PhotoDet
GPD C A TABLE {V(LP)* Spec * Sensy} (0,0) (1,1)
.MODEL PhotoDet D IS=30n RS=0.1 N=1.986196 BV=30 IBV=0.1n
+ CJO=25p VJ=0.455536 M=0.418717 TT=500n ISR=6p NR=100
.ends
* OP906 from Optek SPICE Macro-model        
* Description: Photodiode
* Generic Desc: Silicon, PIN type
* Developed by: P Rako
* Revision History: 
* 1.0 (8/2012) - PR - initial release
* 1.1 (9/2012) - PR - add Optek to first line
* 1.2 (9/2012) - PR - put new line before +
* Copyright 2012 by Analog Devices, Inc.
*
* Refer to http://www.analog.com/Analog_Root/static/techSupport/designTools/spiceModels/license/spice_general.html 
* for License Statement. Use of this model indicates your acceptance
* of the terms and provisions in the License Statement.
* 
*
* BEGIN Notes:
* 
* Not Modeled:
* Temperature effects
* Noise
* 
* Parameters modeled include:  
* Junction capacitance over reverse bias
* Rise/fall time
* Accepts external parameter for sensitivity (Sensy)
* Accepts external parameter for light spectrum (Spec)
* END Notes
*
* Node Assignments
*                         anode
*                         |   cathode
*                         |   |   light input as a voltage
*                         |   |   |
*                         |   |   |
*                         |   |   |
*                         |   |   |
.SUBCKT OP906             A   C   P  PARAMS: Spec=1.0 Sensy=0.5
* 
*
* OP906 from Optek 
* A = Anode
* C = Cathode
* P = (light)Power as a voltage input
Rdummy P 0 1G
Rswt P LP 3.57k
Cswt LP 0 1p
DPD A C PhotoDet
GPD C A TABLE {V(LP)* Spec * Sensy} (0,0) (1,1)
.MODEL PhotoDet D IS=1n RS=0.1 N=1.986196 BV=60 IBV=0.1n
+ CJO=4p VJ=0.455536 M=0.418717 TT=500n ISR=6p NR=100
.ends
* OP950 from Optek SPICE Macro-model        
* Description: Photodiode
* Generic Desc: Silicon, PIN type
* Developed by: P Rako
* Revision History: 
* 1.0 (8/2012) - PR - initial release
* 1.1 (9/2012) - PR - add Optek to first line
* 1.2 (9/2012) - PR - put new line before +
* Copyright 2012 by Analog Devices, Inc.
*
* Refer to http://www.analog.com/Analog_Root/static/techSupport/designTools/spiceModels/license/spice_general.html 
* for License Statement. Use of this model indicates your acceptance
* of the terms and provisions in the License Statement.
* 
*
* BEGIN Notes:
* 
* Not Modeled:
* Temperature effects
* Noise
* 
* Parameters modeled include:  
* Junction capacitance over reverse bias
* Rise/fall time
* Accepts external parameter for sensitivity (Sensy)
* Accepts external parameter for light spectrum (Spec)
* END Notes
*
* Node Assignments
*                         anode
*                         |   cathode
*                         |   |   light input as a voltage
*                         |   |   |
*                         |   |   |
*                         |   |   |
*                         |   |   |
.SUBCKT OP950             A   C   P  PARAMS: Spec=1.0 Sensy=0.5
* 
*
* OP950 from Optek 
* A = Anode
* C = Cathode
* P = (light)Power as a voltage input
Rdummy P 0 1G
Rswt P LP 3.57k
Cswt LP 0 1p
DPD A C PhotoDet
GPD C A TABLE {V(LP)* Spec * Sensy} (0,0) (1,1)
.MODEL PhotoDet D IS=1n RS=0.1 N=1.986196 BV=60 IBV=0.1n
+ CJO=4p VJ=0.455536 M=0.418717 TT=500n ISR=6p NR=100
.ends
* OP999 from Optek SPICE Macro-model        
* Description: Photodiode
* Generic Desc: Silicon, PIN type
* Developed by: P Rako
* Revision History: 
* 1.0 (8/2012) - PR - initial release
* 1.1 (9/2012) - PR - add Optek to first line
* 1.2 (9/2012) - PR - put new line before +
* Copyright 2012 by Analog Devices, Inc.
*
* Refer to http://www.analog.com/Analog_Root/static/techSupport/designTools/spiceModels/license/spice_general.html 
* for License Statement. Use of this model indicates your acceptance
* of the terms and provisions in the License Statement.
* 
*
* BEGIN Notes:
* 
* Not Modeled:
* Temperature effects
* Noise
* 
* Parameters modeled include:  
* Junction capacitance over reverse bias
* Rise/fall time
* Accepts external parameter for sensitivity (Sensy)
* Accepts external parameter for light spectrum (Spec)
* END Notes
*
* Node Assignments
*                         anode
*                         |   cathode
*                         |   |   light input as a voltage
*                         |   |   |
*                         |   |   |
*                         |   |   |
*                         |   |   |
.SUBCKT OP999             A   C   P  PARAMS: Spec=1.0 Sensy=0.5
* 
*
* OP999 from Optek 
* A = Anode
* C = Cathode
* P = (light)Power as a voltage input
Rdummy P 0 1G
Rswt P LP 3.57k
Cswt LP 0 1p
DPD A C PhotoDet
GPD C A TABLE {V(LP)* Spec * Sensy} (0,0) (1,1)
.MODEL PhotoDet D IS=1n RS=0.1 N=1.986196 BV=60 IBV=0.1n
+ CJO=4p VJ=0.455536 M=0.418717 TT=500n ISR=6p NR=100
.ends
* PD15-22B/TR8 SPICE Macro-model        
* Description: Photodiode
* Generic Desc: Silicon, PIN type
* Developed by: P Rako
* Revision History: 
* 1.0 (8/2012) - PR - initial release
* 1.2 (9/2012) - PR - put new line before +
* 1.4 (12/2012) - PR - replaced - with _ in model name.
* Copyright 2012 by Analog Devices, Inc.
*
* Refer to http://www.analog.com/Analog_Root/static/techSupport/designTools/spiceModels/license/spice_general.html 
* for License Statement. Use of this model indicates your acceptance
* of the terms and provisions in the License Statement.
* 
*
* BEGIN Notes:
* 
* Not Modeled:
* Temperature effects
* Noise
* 
* Parameters modeled include:  
* Junction capacitance over reverse bias
* Rise/fall time
* Accepts external parameter for sensitivity (Sensy)
* Accepts external parameter for light spectrum (Spec)
* END Notes
*
* Node Assignments
*                       anode
*                       |   cathode
*                       |   |   light input as a voltage
*                       |   |   |
*                       |   |   |
*                       |   |   |
*                       |   |   |
.SUBCKT PD15_22B_TR8    A   C   P PARAMS: Spec=1.0 Sensy=0.34
* 
*
* PD15-22B/TR8 from Everlight 
* A = Anode
* C = Cathode
* P = (light)Power as a voltage input
Rdummy P 0 1G
Rswt P LP 7.142k
Cswt LP 0 1p
DPD A C PhotoDet
GPD C A TABLE {V(LP)* Spec * Sensy} (0,0) (1,1)
.MODEL PhotoDet D IS=10n RS=0.1 N=1.986196 BV=32 IBV=0.1n
+ CJO=6p VJ=0.455536 M=0.418717 TT=500n ISR=6p NR=100
.ends
* PD15-22C/TR8 SPICE Macro-model        
* Description: Photodiode
* Generic Desc: Silicon, PIN type
* Developed by: P Rako
* Revision History: 
* 1.0 (8/2012) - PR - initial release
* 1.2 (9/2012) - PR - put new line before +
* 1.4 (12/2012) - PR - replaced - with _ in model name.
* Copyright 2012 by Analog Devices, Inc.
*
* Refer to http://www.analog.com/Analog_Root/static/techSupport/designTools/spiceModels/license/spice_general.html 
* for License Statement. Use of this model indicates your acceptance
* of the terms and provisions in the License Statement.
* 
*
* BEGIN Notes:
* 
* Not Modeled:
* Temperature effects
* Noise
* 
* Parameters modeled include:  
* Junction capacitance over reverse bias
* Rise/fall time
* Accepts external parameter for sensitivity (Sensy)
* Accepts external parameter for light spectrum (Spec)
* END Notes
*
* Node Assignments
*                       anode
*                       |   cathode
*                       |   |   light input as a voltage
*                       |   |   |
*                       |   |   |
*                       |   |   |
*                       |   |   |
.SUBCKT PD15_22C_TR8    A   C   P PARAMS: Spec=1.0 Sensy=0.34
* 
*
* PD15-22C/TR8 from Everlight 
* A = Anode
* C = Cathode
* P = (light)Power as a voltage input
Rdummy P 0 1G
Rswt P LP 7.142k
Cswt LP 0 1p
DPD A C PhotoDet
GPD C A TABLE {V(LP)* Spec * Sensy} (0,0) (1,1)
.MODEL PhotoDet D IS=10n RS=0.1 N=1.986196 BV=32 IBV=0.1n
+ CJO=6p VJ=0.455536 M=0.418717 TT=500n ISR=6p NR=100
.ends
* PD70-01B/TR7 SPICE Macro-model        
* Description: Photodiode
* Generic Desc: Silicon, PIN type
* Developed by: P Rako
* Revision History: 
* 1.0 (8/2012) - PR - initial release
* 1.2 (9/2012) - PR - put new line before +
* 1.4 (12/2012) - PR - replaced - with _ in model name.
* Copyright 2012 by Analog Devices, Inc.
*
* Refer to http://www.analog.com/Analog_Root/static/techSupport/designTools/spiceModels/license/spice_general.html 
* for License Statement. Use of this model indicates your acceptance
* of the terms and provisions in the License Statement.
* 
*
* BEGIN Notes:
* 
* Not Modeled:
* Temperature effects
* Noise
* 
* Parameters modeled include:  
* Junction capacitance over reverse bias
* Rise/fall time
* Accepts external parameter for sensitivity (Sensy)
* Accepts external parameter for light spectrum (Spec)
* END Notes
*
* Node Assignments
*                       anode
*                       |   cathode
*                       |   |   light input as a voltage
*                       |   |   |
*                       |   |   |
*                       |   |   |
*                       |   |   |
.SUBCKT PD70_01B_TR7    A   C   P PARAMS: Spec=1.0 Sensy=0.34
* 
*
* PD70-01B/TR7 from Everlight 
* A = Anode
* C = Cathode
* P = (light)Power as a voltage input
Rdummy P 0 1G
Rswt P LP 35.7k
Cswt LP 0 1p
DPD A C PhotoDet
GPD C A TABLE {V(LP)* Spec * Sensy} (0,0) (1,1)
.MODEL PhotoDet D IS=5n RS=0.1 N=1.986196 BV=32 IBV=0.1n
+ CJO=25p VJ=0.455536 M=0.418717 TT=500n ISR=6p NR=100
.ends
* PD93-21C/TR8 SPICE Macro-model        
* Description: Photodiode
* Generic Desc: Silicon, PIN type
* Developed by: P Rako
* Revision History: 
* 1.0 (8/2012) - PR - initial release
* 1.2 (9/2012) - PR - put new line before +
* 1.4 (12/2012) - PR - replaced - with _ in model name.
* Copyright 2012 by Analog Devices, Inc.
*
* Refer to http://www.analog.com/Analog_Root/static/techSupport/designTools/spiceModels/license/spice_general.html 
* for License Statement. Use of this model indicates your acceptance
* of the terms and provisions in the License Statement.
* 
*
* BEGIN Notes:
* 
* Not Modeled:
* Temperature effects
* Noise
* 
* Parameters modeled include:  
* Junction capacitance over reverse bias
* Rise/fall time
* Accepts external parameter for sensitivity (Sensy)
* Accepts external parameter for light spectrum (Spec)
* END Notes
*
* Node Assignments
*                       anode
*                       |   cathode
*                       |   |   light input as a voltage
*                       |   |   |
*                       |   |   |
*                       |   |   |
*                       |   |   |
.SUBCKT PD93_21C_TR8   A   C   P PARAMS: Spec=1.0 Sensy=0.34
* 
*
* PD93-21C/TR8 from Everlight 
* A = Anode
* C = Cathode
* P = (light)Power as a voltage input
Rdummy P 0 1G
Rswt P LP 4.285k
Cswt LP 0 1p
DPD A C PhotoDet
GPD C A TABLE {V(LP)* Spec * Sensy} (0,0) (1,1)
.MODEL PhotoDet D IS=10n RS=0.1 N=1.986196 BV=32 IBV=0.1n
+ CJO=5p VJ=0.455536 M=0.418717 TT=500n ISR=6p NR=100
.ends
* PD95-21B/TR10 SPICE Macro-model        
* Description: Photodiode
* Generic Desc: Silicon, PIN type
* Developed by: P Rako
* Revision History: 
* 1.0 (8/2012) - PR - initial release
* 1.2 (9/2012) - PR - put new line before +
* 1.4 (12/2012) - PR - replaced - with _ in model name.
* Copyright 2012 by Analog Devices, Inc.
*
* Refer to http://www.analog.com/Analog_Root/static/techSupport/designTools/spiceModels/license/spice_general.html 
* for License Statement. Use of this model indicates your acceptance
* of the terms and provisions in the License Statement.
* 
*
* BEGIN Notes:
* 
* Not Modeled:
* Temperature effects
* Noise
* 
* Parameters modeled include:  
* Junction capacitance over reverse bias
* Rise/fall time
* Accepts external parameter for sensitivity (Sensy)
* Accepts external parameter for light spectrum (Spec)
* END Notes
*
* Node Assignments
*                       anode
*                       |   cathode
*                       |   |   light input as a voltage
*                       |   |   |
*                       |   |   |
*                       |   |   |
*                       |   |   |
.SUBCKT PD95-21B/TR10   A   C   P PARAMS: Spec=1.0 Sensy=0.34
* 
*
* PD95_21B_TR10 from Everlight 
* A = Anode
* C = Cathode
* P = (light)Power as a voltage input
Rdummy P 0 1G
Rswt P LP 4.285k
Cswt LP 0 1p
DPD A C PhotoDet
GPD C A TABLE {V(LP)* Spec * Sensy} (0,0) (1,1)
.MODEL PhotoDet D IS=10n RS=0.1 N=1.986196 BV=32 IBV=0.1n
+ CJO=5p VJ=0.455536 M=0.418717 TT=500n ISR=6p NR=100
.ends
* PDB-C134 SPICE Macro-model        
* Description: Photodiode
* Generic Desc: Silicon, PIN type
* Developed by: P Rako
* Revision History: 
* 1.0 (8/2012) - PR - initial release
* 1.2 (9/2012) - PR - put new line before +
* 1.4 (12/2012) - PR - replaced - with _ in model name.
* Copyright 2012 by Analog Devices, Inc.
*
* Refer to http://www.analog.com/Analog_Root/static/techSupport/designTools/spiceModels/license/spice_general.html 
* for License Statement. Use of this model indicates your acceptance
* of the terms and provisions in the License Statement.
* 
*