*.model 1N4148 D(Is=2.52n Rs=.568 N=1.752 Cjo=4p M=.4 tt=20n Iave=200m Vpk=75 mfg=OnSemi type=silicon)
.model 1N4148mny D(Is=4.352n N=1.906 BV=110 IBV=0.0001 RS=0.6458 CJO=7.048E-13 VJ=0.869 M=0.03 FC=0.5 TT=3.48E-9)

*.MODEL 1N4148WS D  ( IS=10.4n RS=51.5m BV=75.0 IBV=1.00u CJO=2.00p  M=0.333 N=2.07 TT=5.76n )
*.MODEL DI_1N4148WT D  ( IS=111n RS=0.628 BV=80.0 IBV=1.00u CJO=2.00p  M=0.333 N=1.70 TT=5.76n )