Version 4
SHEET 1 880 680
WIRE 192 176 192 160
WIRE 192 176 176 176
WIRE 208 176 192 176
WIRE 176 192 176 176
WIRE 208 192 208 176
WIRE 176 272 176 256
WIRE 192 272 176 272
WIRE 208 272 208 256
WIRE 208 272 192 272
WIRE 192 288 192 272
FLAG 192 160 +
IOPIN 192 160 In
FLAG 192 288 -
IOPIN 192 288 Out
SYMBOL d30703bx 192 224 R0
SYMATTR InstName X1
SYMBOL d30703bx 192 224 R180
SYMATTR InstName X2
