Version 4
SHEET 1 1096 680
WIRE 64 0 -368 0
WIRE -176 64 -192 64
WIRE -96 64 -112 64
WIRE -368 96 -368 0
WIRE -320 96 -368 96
WIRE -176 96 -256 96
WIRE -320 112 -448 112
WIRE -320 128 -352 128
WIRE -96 144 -96 64
WIRE -80 144 -96 144
WIRE 48 144 16 144
WIRE 80 144 48 144
WIRE -576 192 -672 192
WIRE -352 192 -352 128
WIRE -352 192 -432 192
WIRE -80 192 -96 192
WIRE 64 192 64 0
WIRE 64 192 32 192
WIRE 80 192 64 192
WIRE -352 256 -352 192
WIRE -320 256 -352 256
WIRE -176 256 -256 256
WIRE -96 256 -96 192
WIRE -96 256 -112 256
WIRE -320 272 -448 272
WIRE -320 288 -368 288
WIRE -176 288 -192 288
WIRE -368 352 -368 288
WIRE 48 352 48 144
WIRE 48 352 -368 352
FLAG -192 288 R
IOPIN -192 288 In
FLAG -192 64 S
IOPIN -192 64 In
FLAG 80 144 Q
IOPIN 80 144 Out
FLAG -448 272 K
IOPIN -448 272 In
FLAG -448 112 J
IOPIN -448 112 In
FLAG 80 192 Q\
IOPIN 80 192 Out
FLAG -672 192 Clk
IOPIN -672 192 In
SYMBOL Digital\\and -288 48 R0
SYMATTR InstName A3
SYMATTR SpiceLine td=10n
SYMBOL Digital\\and -288 208 R0
SYMATTR InstName A4
SYMATTR SpiceLine td=10n
SYMBOL Digital\\srflop -32 96 R0
SYMATTR InstName A1
SYMATTR SpiceLine td=20n
SYMBOL Digital\\or -144 208 R0
SYMATTR InstName A2
SYMATTR SpiceLine td=10n
SYMBOL Digital\\or -144 16 R0
SYMATTR InstName A5
SYMATTR SpiceLine td=10n
SYMBOL d41101a -512 192 R0
SYMATTR InstName X1
